*SPEF "ieee 1481-1999"
*DESIGN "user_project_wrapper"
*DATE "11:11:11 Fri 11 11, 1111"
*VENDOR "OpenRCX"
*PROGRAM "Parallel Extraction"
*VERSION "1.0"
*DESIGN_FLOW "NAME_SCOPE LOCAL" "PIN_CAP NONE"
*DIVIDER /
*DELIMITER :
*BUS_DELIMITER []
*T_UNIT 1 NS
*C_UNIT 1 PF
*R_UNIT 1 OHM
*L_UNIT 1 HENRY

*NAME_MAP
*1 io_in[0]
*2 io_in[10]
*3 io_in[11]
*4 io_in[12]
*5 io_in[13]
*6 io_in[14]
*7 io_in[15]
*8 io_in[16]
*9 io_in[17]
*10 io_in[18]
*11 io_in[19]
*12 io_in[1]
*13 io_in[20]
*14 io_in[21]
*15 io_in[22]
*16 io_in[23]
*17 io_in[24]
*18 io_in[25]
*19 io_in[26]
*20 io_in[27]
*21 io_in[28]
*22 io_in[29]
*23 io_in[2]
*24 io_in[30]
*25 io_in[31]
*26 io_in[32]
*27 io_in[33]
*28 io_in[34]
*29 io_in[35]
*30 io_in[36]
*31 io_in[37]
*32 io_in[3]
*33 io_in[4]
*34 io_in[5]
*35 io_in[6]
*36 io_in[7]
*37 io_in[8]
*38 io_in[9]
*39 io_oeb[0]
*40 io_oeb[10]
*41 io_oeb[11]
*42 io_oeb[12]
*43 io_oeb[13]
*44 io_oeb[14]
*45 io_oeb[15]
*46 io_oeb[16]
*47 io_oeb[17]
*48 io_oeb[18]
*49 io_oeb[19]
*50 io_oeb[1]
*51 io_oeb[20]
*52 io_oeb[21]
*53 io_oeb[22]
*54 io_oeb[23]
*55 io_oeb[24]
*56 io_oeb[25]
*57 io_oeb[26]
*58 io_oeb[27]
*59 io_oeb[28]
*60 io_oeb[29]
*61 io_oeb[2]
*62 io_oeb[30]
*63 io_oeb[31]
*64 io_oeb[32]
*65 io_oeb[33]
*66 io_oeb[34]
*67 io_oeb[35]
*68 io_oeb[36]
*69 io_oeb[37]
*70 io_oeb[3]
*71 io_oeb[4]
*72 io_oeb[5]
*73 io_oeb[6]
*74 io_oeb[7]
*75 io_oeb[8]
*76 io_oeb[9]
*77 io_out[0]
*78 io_out[10]
*79 io_out[11]
*80 io_out[12]
*81 io_out[13]
*82 io_out[14]
*83 io_out[15]
*84 io_out[16]
*85 io_out[17]
*86 io_out[18]
*87 io_out[19]
*88 io_out[1]
*89 io_out[20]
*90 io_out[21]
*91 io_out[22]
*92 io_out[23]
*93 io_out[24]
*94 io_out[25]
*95 io_out[26]
*96 io_out[27]
*97 io_out[28]
*98 io_out[29]
*99 io_out[2]
*100 io_out[30]
*101 io_out[31]
*102 io_out[32]
*103 io_out[33]
*104 io_out[34]
*105 io_out[35]
*106 io_out[36]
*107 io_out[37]
*108 io_out[3]
*109 io_out[4]
*110 io_out[5]
*111 io_out[6]
*112 io_out[7]
*113 io_out[8]
*114 io_out[9]
*115 la_data_in[0]
*116 la_data_in[10]
*117 la_data_in[11]
*118 la_data_in[12]
*119 la_data_in[13]
*120 la_data_in[14]
*121 la_data_in[15]
*122 la_data_in[16]
*123 la_data_in[17]
*124 la_data_in[18]
*125 la_data_in[19]
*126 la_data_in[1]
*127 la_data_in[20]
*128 la_data_in[21]
*129 la_data_in[22]
*130 la_data_in[23]
*131 la_data_in[24]
*132 la_data_in[25]
*133 la_data_in[26]
*134 la_data_in[27]
*135 la_data_in[28]
*136 la_data_in[29]
*137 la_data_in[2]
*138 la_data_in[30]
*139 la_data_in[31]
*140 la_data_in[32]
*141 la_data_in[33]
*142 la_data_in[34]
*143 la_data_in[35]
*144 la_data_in[36]
*145 la_data_in[37]
*146 la_data_in[38]
*147 la_data_in[39]
*148 la_data_in[3]
*149 la_data_in[40]
*150 la_data_in[41]
*151 la_data_in[42]
*152 la_data_in[43]
*153 la_data_in[44]
*154 la_data_in[45]
*155 la_data_in[46]
*156 la_data_in[47]
*157 la_data_in[48]
*158 la_data_in[49]
*159 la_data_in[4]
*160 la_data_in[50]
*161 la_data_in[51]
*162 la_data_in[52]
*163 la_data_in[53]
*164 la_data_in[54]
*165 la_data_in[55]
*166 la_data_in[56]
*167 la_data_in[57]
*168 la_data_in[58]
*169 la_data_in[59]
*170 la_data_in[5]
*171 la_data_in[60]
*172 la_data_in[61]
*173 la_data_in[62]
*174 la_data_in[63]
*175 la_data_in[6]
*176 la_data_in[7]
*177 la_data_in[8]
*178 la_data_in[9]
*179 la_data_out[0]
*180 la_data_out[10]
*181 la_data_out[11]
*182 la_data_out[12]
*183 la_data_out[13]
*184 la_data_out[14]
*185 la_data_out[15]
*186 la_data_out[16]
*187 la_data_out[17]
*188 la_data_out[18]
*189 la_data_out[19]
*190 la_data_out[1]
*191 la_data_out[20]
*192 la_data_out[21]
*193 la_data_out[22]
*194 la_data_out[23]
*195 la_data_out[24]
*196 la_data_out[25]
*197 la_data_out[26]
*198 la_data_out[27]
*199 la_data_out[28]
*200 la_data_out[29]
*201 la_data_out[2]
*202 la_data_out[30]
*203 la_data_out[31]
*204 la_data_out[32]
*205 la_data_out[33]
*206 la_data_out[34]
*207 la_data_out[35]
*208 la_data_out[36]
*209 la_data_out[37]
*210 la_data_out[38]
*211 la_data_out[39]
*212 la_data_out[3]
*213 la_data_out[40]
*214 la_data_out[41]
*215 la_data_out[42]
*216 la_data_out[43]
*217 la_data_out[44]
*218 la_data_out[45]
*219 la_data_out[46]
*220 la_data_out[47]
*221 la_data_out[48]
*222 la_data_out[49]
*223 la_data_out[4]
*224 la_data_out[50]
*225 la_data_out[51]
*226 la_data_out[52]
*227 la_data_out[53]
*228 la_data_out[54]
*229 la_data_out[55]
*230 la_data_out[56]
*231 la_data_out[57]
*232 la_data_out[58]
*233 la_data_out[59]
*234 la_data_out[5]
*235 la_data_out[60]
*236 la_data_out[61]
*237 la_data_out[62]
*238 la_data_out[63]
*239 la_data_out[6]
*240 la_data_out[7]
*241 la_data_out[8]
*242 la_data_out[9]
*243 la_oenb[0]
*244 la_oenb[10]
*245 la_oenb[11]
*246 la_oenb[12]
*247 la_oenb[13]
*248 la_oenb[14]
*249 la_oenb[15]
*250 la_oenb[16]
*251 la_oenb[17]
*252 la_oenb[18]
*253 la_oenb[19]
*254 la_oenb[1]
*255 la_oenb[20]
*256 la_oenb[21]
*257 la_oenb[22]
*258 la_oenb[23]
*259 la_oenb[24]
*260 la_oenb[25]
*261 la_oenb[26]
*262 la_oenb[27]
*263 la_oenb[28]
*264 la_oenb[29]
*265 la_oenb[2]
*266 la_oenb[30]
*267 la_oenb[31]
*268 la_oenb[32]
*269 la_oenb[33]
*270 la_oenb[34]
*271 la_oenb[35]
*272 la_oenb[36]
*273 la_oenb[37]
*274 la_oenb[38]
*275 la_oenb[39]
*276 la_oenb[3]
*277 la_oenb[40]
*278 la_oenb[41]
*279 la_oenb[42]
*280 la_oenb[43]
*281 la_oenb[44]
*282 la_oenb[45]
*283 la_oenb[46]
*284 la_oenb[47]
*285 la_oenb[48]
*286 la_oenb[49]
*287 la_oenb[4]
*288 la_oenb[50]
*289 la_oenb[51]
*290 la_oenb[52]
*291 la_oenb[53]
*292 la_oenb[54]
*293 la_oenb[55]
*294 la_oenb[56]
*295 la_oenb[57]
*296 la_oenb[58]
*297 la_oenb[59]
*298 la_oenb[5]
*299 la_oenb[60]
*300 la_oenb[61]
*301 la_oenb[62]
*302 la_oenb[63]
*303 la_oenb[6]
*304 la_oenb[7]
*305 la_oenb[8]
*306 la_oenb[9]
*307 user_clock2
*308 user_irq[0]
*309 user_irq[1]
*310 user_irq[2]
*313 wb_clk_i
*314 wb_rst_i
*315 wbs_ack_o
*316 wbs_adr_i[0]
*317 wbs_adr_i[10]
*318 wbs_adr_i[11]
*319 wbs_adr_i[12]
*320 wbs_adr_i[13]
*321 wbs_adr_i[14]
*322 wbs_adr_i[15]
*323 wbs_adr_i[16]
*324 wbs_adr_i[17]
*325 wbs_adr_i[18]
*326 wbs_adr_i[19]
*327 wbs_adr_i[1]
*328 wbs_adr_i[20]
*329 wbs_adr_i[21]
*330 wbs_adr_i[22]
*331 wbs_adr_i[23]
*332 wbs_adr_i[24]
*333 wbs_adr_i[25]
*334 wbs_adr_i[26]
*335 wbs_adr_i[27]
*336 wbs_adr_i[28]
*337 wbs_adr_i[29]
*338 wbs_adr_i[2]
*339 wbs_adr_i[30]
*340 wbs_adr_i[31]
*341 wbs_adr_i[3]
*342 wbs_adr_i[4]
*343 wbs_adr_i[5]
*344 wbs_adr_i[6]
*345 wbs_adr_i[7]
*346 wbs_adr_i[8]
*347 wbs_adr_i[9]
*348 wbs_cyc_i
*349 wbs_dat_i[0]
*350 wbs_dat_i[10]
*351 wbs_dat_i[11]
*352 wbs_dat_i[12]
*353 wbs_dat_i[13]
*354 wbs_dat_i[14]
*355 wbs_dat_i[15]
*356 wbs_dat_i[16]
*357 wbs_dat_i[17]
*358 wbs_dat_i[18]
*359 wbs_dat_i[19]
*360 wbs_dat_i[1]
*361 wbs_dat_i[20]
*362 wbs_dat_i[21]
*363 wbs_dat_i[22]
*364 wbs_dat_i[23]
*365 wbs_dat_i[24]
*366 wbs_dat_i[25]
*367 wbs_dat_i[26]
*368 wbs_dat_i[27]
*369 wbs_dat_i[28]
*370 wbs_dat_i[29]
*371 wbs_dat_i[2]
*372 wbs_dat_i[30]
*373 wbs_dat_i[31]
*374 wbs_dat_i[3]
*375 wbs_dat_i[4]
*376 wbs_dat_i[5]
*377 wbs_dat_i[6]
*378 wbs_dat_i[7]
*379 wbs_dat_i[8]
*380 wbs_dat_i[9]
*381 wbs_dat_o[0]
*382 wbs_dat_o[10]
*383 wbs_dat_o[11]
*384 wbs_dat_o[12]
*385 wbs_dat_o[13]
*386 wbs_dat_o[14]
*387 wbs_dat_o[15]
*388 wbs_dat_o[16]
*389 wbs_dat_o[17]
*390 wbs_dat_o[18]
*391 wbs_dat_o[19]
*392 wbs_dat_o[1]
*393 wbs_dat_o[20]
*394 wbs_dat_o[21]
*395 wbs_dat_o[22]
*396 wbs_dat_o[23]
*397 wbs_dat_o[24]
*398 wbs_dat_o[25]
*399 wbs_dat_o[26]
*400 wbs_dat_o[27]
*401 wbs_dat_o[28]
*402 wbs_dat_o[29]
*403 wbs_dat_o[2]
*404 wbs_dat_o[30]
*405 wbs_dat_o[31]
*406 wbs_dat_o[3]
*407 wbs_dat_o[4]
*408 wbs_dat_o[5]
*409 wbs_dat_o[6]
*410 wbs_dat_o[7]
*411 wbs_dat_o[8]
*412 wbs_dat_o[9]
*413 wbs_sel_i[0]
*414 wbs_sel_i[1]
*415 wbs_sel_i[2]
*416 wbs_sel_i[3]
*417 wbs_stb_i
*418 wbs_we_i
*419 mprj

*PORTS
io_in[0] I
io_in[10] I
io_in[11] I
io_in[12] I
io_in[13] I
io_in[14] I
io_in[15] I
io_in[16] I
io_in[17] I
io_in[18] I
io_in[19] I
io_in[1] I
io_in[20] I
io_in[21] I
io_in[22] I
io_in[23] I
io_in[24] I
io_in[25] I
io_in[26] I
io_in[27] I
io_in[28] I
io_in[29] I
io_in[2] I
io_in[30] I
io_in[31] I
io_in[32] I
io_in[33] I
io_in[34] I
io_in[35] I
io_in[36] I
io_in[37] I
io_in[3] I
io_in[4] I
io_in[5] I
io_in[6] I
io_in[7] I
io_in[8] I
io_in[9] I
io_oeb[0] O
io_oeb[10] O
io_oeb[11] O
io_oeb[12] O
io_oeb[13] O
io_oeb[14] O
io_oeb[15] O
io_oeb[16] O
io_oeb[17] O
io_oeb[18] O
io_oeb[19] O
io_oeb[1] O
io_oeb[20] O
io_oeb[21] O
io_oeb[22] O
io_oeb[23] O
io_oeb[24] O
io_oeb[25] O
io_oeb[26] O
io_oeb[27] O
io_oeb[28] O
io_oeb[29] O
io_oeb[2] O
io_oeb[30] O
io_oeb[31] O
io_oeb[32] O
io_oeb[33] O
io_oeb[34] O
io_oeb[35] O
io_oeb[36] O
io_oeb[37] O
io_oeb[3] O
io_oeb[4] O
io_oeb[5] O
io_oeb[6] O
io_oeb[7] O
io_oeb[8] O
io_oeb[9] O
io_out[0] O
io_out[10] O
io_out[11] O
io_out[12] O
io_out[13] O
io_out[14] O
io_out[15] O
io_out[16] O
io_out[17] O
io_out[18] O
io_out[19] O
io_out[1] O
io_out[20] O
io_out[21] O
io_out[22] O
io_out[23] O
io_out[24] O
io_out[25] O
io_out[26] O
io_out[27] O
io_out[28] O
io_out[29] O
io_out[2] O
io_out[30] O
io_out[31] O
io_out[32] O
io_out[33] O
io_out[34] O
io_out[35] O
io_out[36] O
io_out[37] O
io_out[3] O
io_out[4] O
io_out[5] O
io_out[6] O
io_out[7] O
io_out[8] O
io_out[9] O
la_data_in[0] I
la_data_in[10] I
la_data_in[11] I
la_data_in[12] I
la_data_in[13] I
la_data_in[14] I
la_data_in[15] I
la_data_in[16] I
la_data_in[17] I
la_data_in[18] I
la_data_in[19] I
la_data_in[1] I
la_data_in[20] I
la_data_in[21] I
la_data_in[22] I
la_data_in[23] I
la_data_in[24] I
la_data_in[25] I
la_data_in[26] I
la_data_in[27] I
la_data_in[28] I
la_data_in[29] I
la_data_in[2] I
la_data_in[30] I
la_data_in[31] I
la_data_in[32] I
la_data_in[33] I
la_data_in[34] I
la_data_in[35] I
la_data_in[36] I
la_data_in[37] I
la_data_in[38] I
la_data_in[39] I
la_data_in[3] I
la_data_in[40] I
la_data_in[41] I
la_data_in[42] I
la_data_in[43] I
la_data_in[44] I
la_data_in[45] I
la_data_in[46] I
la_data_in[47] I
la_data_in[48] I
la_data_in[49] I
la_data_in[4] I
la_data_in[50] I
la_data_in[51] I
la_data_in[52] I
la_data_in[53] I
la_data_in[54] I
la_data_in[55] I
la_data_in[56] I
la_data_in[57] I
la_data_in[58] I
la_data_in[59] I
la_data_in[5] I
la_data_in[60] I
la_data_in[61] I
la_data_in[62] I
la_data_in[63] I
la_data_in[6] I
la_data_in[7] I
la_data_in[8] I
la_data_in[9] I
la_data_out[0] O
la_data_out[10] O
la_data_out[11] O
la_data_out[12] O
la_data_out[13] O
la_data_out[14] O
la_data_out[15] O
la_data_out[16] O
la_data_out[17] O
la_data_out[18] O
la_data_out[19] O
la_data_out[1] O
la_data_out[20] O
la_data_out[21] O
la_data_out[22] O
la_data_out[23] O
la_data_out[24] O
la_data_out[25] O
la_data_out[26] O
la_data_out[27] O
la_data_out[28] O
la_data_out[29] O
la_data_out[2] O
la_data_out[30] O
la_data_out[31] O
la_data_out[32] O
la_data_out[33] O
la_data_out[34] O
la_data_out[35] O
la_data_out[36] O
la_data_out[37] O
la_data_out[38] O
la_data_out[39] O
la_data_out[3] O
la_data_out[40] O
la_data_out[41] O
la_data_out[42] O
la_data_out[43] O
la_data_out[44] O
la_data_out[45] O
la_data_out[46] O
la_data_out[47] O
la_data_out[48] O
la_data_out[49] O
la_data_out[4] O
la_data_out[50] O
la_data_out[51] O
la_data_out[52] O
la_data_out[53] O
la_data_out[54] O
la_data_out[55] O
la_data_out[56] O
la_data_out[57] O
la_data_out[58] O
la_data_out[59] O
la_data_out[5] O
la_data_out[60] O
la_data_out[61] O
la_data_out[62] O
la_data_out[63] O
la_data_out[6] O
la_data_out[7] O
la_data_out[8] O
la_data_out[9] O
la_oenb[0] I
la_oenb[10] I
la_oenb[11] I
la_oenb[12] I
la_oenb[13] I
la_oenb[14] I
la_oenb[15] I
la_oenb[16] I
la_oenb[17] I
la_oenb[18] I
la_oenb[19] I
la_oenb[1] I
la_oenb[20] I
la_oenb[21] I
la_oenb[22] I
la_oenb[23] I
la_oenb[24] I
la_oenb[25] I
la_oenb[26] I
la_oenb[27] I
la_oenb[28] I
la_oenb[29] I
la_oenb[2] I
la_oenb[30] I
la_oenb[31] I
la_oenb[32] I
la_oenb[33] I
la_oenb[34] I
la_oenb[35] I
la_oenb[36] I
la_oenb[37] I
la_oenb[38] I
la_oenb[39] I
la_oenb[3] I
la_oenb[40] I
la_oenb[41] I
la_oenb[42] I
la_oenb[43] I
la_oenb[44] I
la_oenb[45] I
la_oenb[46] I
la_oenb[47] I
la_oenb[48] I
la_oenb[49] I
la_oenb[4] I
la_oenb[50] I
la_oenb[51] I
la_oenb[52] I
la_oenb[53] I
la_oenb[54] I
la_oenb[55] I
la_oenb[56] I
la_oenb[57] I
la_oenb[58] I
la_oenb[59] I
la_oenb[5] I
la_oenb[60] I
la_oenb[61] I
la_oenb[62] I
la_oenb[63] I
la_oenb[6] I
la_oenb[7] I
la_oenb[8] I
la_oenb[9] I
user_clock2 I
user_irq[0] O
user_irq[1] O
user_irq[2] O
wb_clk_i I
wb_rst_i I
wbs_ack_o O
wbs_adr_i[0] I
wbs_adr_i[10] I
wbs_adr_i[11] I
wbs_adr_i[12] I
wbs_adr_i[13] I
wbs_adr_i[14] I
wbs_adr_i[15] I
wbs_adr_i[16] I
wbs_adr_i[17] I
wbs_adr_i[18] I
wbs_adr_i[19] I
wbs_adr_i[1] I
wbs_adr_i[20] I
wbs_adr_i[21] I
wbs_adr_i[22] I
wbs_adr_i[23] I
wbs_adr_i[24] I
wbs_adr_i[25] I
wbs_adr_i[26] I
wbs_adr_i[27] I
wbs_adr_i[28] I
wbs_adr_i[29] I
wbs_adr_i[2] I
wbs_adr_i[30] I
wbs_adr_i[31] I
wbs_adr_i[3] I
wbs_adr_i[4] I
wbs_adr_i[5] I
wbs_adr_i[6] I
wbs_adr_i[7] I
wbs_adr_i[8] I
wbs_adr_i[9] I
wbs_cyc_i I
wbs_dat_i[0] I
wbs_dat_i[10] I
wbs_dat_i[11] I
wbs_dat_i[12] I
wbs_dat_i[13] I
wbs_dat_i[14] I
wbs_dat_i[15] I
wbs_dat_i[16] I
wbs_dat_i[17] I
wbs_dat_i[18] I
wbs_dat_i[19] I
wbs_dat_i[1] I
wbs_dat_i[20] I
wbs_dat_i[21] I
wbs_dat_i[22] I
wbs_dat_i[23] I
wbs_dat_i[24] I
wbs_dat_i[25] I
wbs_dat_i[26] I
wbs_dat_i[27] I
wbs_dat_i[28] I
wbs_dat_i[29] I
wbs_dat_i[2] I
wbs_dat_i[30] I
wbs_dat_i[31] I
wbs_dat_i[3] I
wbs_dat_i[4] I
wbs_dat_i[5] I
wbs_dat_i[6] I
wbs_dat_i[7] I
wbs_dat_i[8] I
wbs_dat_i[9] I
wbs_dat_o[0] O
wbs_dat_o[10] O
wbs_dat_o[11] O
wbs_dat_o[12] O
wbs_dat_o[13] O
wbs_dat_o[14] O
wbs_dat_o[15] O
wbs_dat_o[16] O
wbs_dat_o[17] O
wbs_dat_o[18] O
wbs_dat_o[19] O
wbs_dat_o[1] O
wbs_dat_o[20] O
wbs_dat_o[21] O
wbs_dat_o[22] O
wbs_dat_o[23] O
wbs_dat_o[24] O
wbs_dat_o[25] O
wbs_dat_o[26] O
wbs_dat_o[27] O
wbs_dat_o[28] O
wbs_dat_o[29] O
wbs_dat_o[2] O
wbs_dat_o[30] O
wbs_dat_o[31] O
wbs_dat_o[3] O
wbs_dat_o[4] O
wbs_dat_o[5] O
wbs_dat_o[6] O
wbs_dat_o[7] O
wbs_dat_o[8] O
wbs_dat_o[9] O
wbs_sel_i[0] I
wbs_sel_i[1] I
wbs_sel_i[2] I
wbs_sel_i[3] I
wbs_stb_i I
wbs_we_i I

*D_NET *1 1.04209
*CONN
*P io_in[0] I
*I *419:io_in[0] I *D vb_wrapper
*CAP
1 io_in[0] 0.000509679
2 *419:io_in[0] 0.00510923
3 *1:11 0.0326516
4 *1:10 0.0275424
5 *1:8 0.00397445
6 *1:7 0.00448412
7 *1:8 *34:8 0.199184
8 *1:8 *39:13 0.307739
9 *1:8 *173:11 0
10 *1:8 *236:11 0.12118
11 *1:11 *27:11 0.163602
12 *1:11 *45:10 0
13 *1:11 *72:10 0.176112
*RES
1 io_in[0] *1:7 8.505 
2 *1:7 *1:8 825.57 
3 *1:8 *1:10 4.5 
4 *1:10 *1:11 626.67 
5 *1:11 *419:io_in[0] 40.455 
*END

*D_NET *2 0.354776
*CONN
*P io_in[10] I
*I *419:io_in[10] I *D vb_wrapper
*CAP
1 io_in[10] 0.000276945
2 *419:io_in[10] 0.0015927
3 *2:11 0.0418586
4 *2:10 0.0402659
5 *2:8 0.00436169
6 *2:7 0.00463864
7 *2:8 *3:8 0.0393873
8 *2:8 *35:8 0.000267705
9 *2:8 *36:8 0.00147184
10 *2:8 *37:8 0.0602337
11 *2:11 *419:io_in[14] 0
12 *2:11 *76:10 0.160421
*RES
1 io_in[10] *2:7 6.705 
2 *2:7 *2:8 163.89 
3 *2:8 *2:10 4.5 
4 *2:10 *2:11 503.73 
5 *2:11 *419:io_in[10] 15.255 
*END

*D_NET *3 0.33272
*CONN
*P io_in[11] I
*I *419:io_in[11] I *D vb_wrapper
*CAP
1 io_in[11] 0.000255388
2 *419:io_in[11] 0.00202626
3 *3:11 0.0292901
4 *3:10 0.0272638
5 *3:8 0.00428181
6 *3:7 0.0045372
7 *3:8 *4:10 0.0155388
8 *3:8 *35:8 0.000248162
9 *3:11 *65:8 0.110637
10 *3:11 *68:10 0.0219348
11 *3:11 *95:10 0.0773192
12 *2:8 *3:8 0.0393873
*RES
1 io_in[11] *3:7 6.525 
2 *3:7 *3:8 103.23 
3 *3:8 *3:10 4.5 
4 *3:10 *3:11 490.95 
5 *3:11 *419:io_in[11] 17.775 
*END

*D_NET *4 0.328626
*CONN
*P io_in[12] I
*I *419:io_in[12] I *D vb_wrapper
*CAP
1 io_in[12] 0.00023383
2 *419:io_in[12] 0.00297798
3 *4:11 0.0248717
4 *4:10 0.0250643
5 *4:7 0.00340435
6 *4:10 *35:8 0.000323835
7 *4:11 *26:19 0.0990074
8 *4:11 *109:10 0.157204
9 *3:8 *4:10 0.0155388
*RES
1 io_in[12] *4:7 6.345 
2 *4:7 *4:10 49.41 
3 *4:10 *4:11 479.25 
4 *4:11 *419:io_in[12] 23.715 
*END

*D_NET *5 0.326569
*CONN
*P io_in[13] I
*I *419:io_in[13] I *D vb_wrapper
*CAP
1 io_in[13] 0.0161375
2 *419:io_in[13] 0.00581303
3 *5:5 0.0219505
4 *5:5 *35:11 0.185855
5 *5:5 *102:14 0.0968126
*RES
1 io_in[13] *5:5 468.585 
2 *5:5 *419:io_in[13] 42.435 
*END

*D_NET *6 0.146221
*CONN
*P io_in[14] I
*I *419:io_in[14] I *D vb_wrapper
*CAP
1 io_in[14] 0.000264341
2 *419:io_in[14] 0.00158508
3 *6:16 0.0140164
4 *6:15 0.0124313
5 *6:13 0.057695
6 *6:11 0.0579593
7 *419:io_in[14] *22:19 0.00146826
8 *419:io_in[14] *81:11 0
9 *6:16 *44:9 0.000800808
10 *6:16 *44:13 0
11 *2:11 *419:io_in[14] 0
*RES
1 io_in[14] *6:11 2.655 
2 *6:11 *6:13 451.17 
3 *6:13 *6:15 4.5 
4 *6:15 *6:16 90.99 
5 *6:16 *419:io_in[14] 20.475 
*END

*D_NET *7 0.207518
*CONN
*P io_in[15] I
*I *419:io_in[15] I *D vb_wrapper
*CAP
1 io_in[15] 0.0027756
2 *419:io_in[15] 0.00645702
3 *7:14 0.0576157
4 *7:13 0.0511587
5 *7:11 0.00757423
6 *7:10 0.0103498
7 *7:11 *34:8 0.000586426
8 *7:11 *39:13 0.00276387
9 *7:11 *44:17 0.0338281
10 *7:14 *15:12 0.0344084
11 *7:14 *34:11 0
12 *7:14 *50:14 0
*RES
1 io_in[15] *7:10 31.275 
2 *7:10 *7:11 104.85 
3 *7:11 *7:13 4.5 
4 *7:13 *7:14 440.37 
5 *7:14 *419:io_in[15] 46.935 
*END

*D_NET *8 0.124417
*CONN
*P io_in[16] I
*I *419:io_in[16] I *D vb_wrapper
*CAP
1 io_in[16] 0.000247817
2 *419:io_in[16] 0.000108601
3 *8:19 0.00959937
4 *8:18 0.00949077
5 *8:16 0.0393169
6 *8:15 0.0393169
7 *8:13 0.0130443
8 *8:11 0.0132921
*RES
1 io_in[16] *8:11 2.655 
2 *8:11 *8:13 100.17 
3 *8:13 *8:15 4.5 
4 *8:15 *8:16 305.19 
5 *8:16 *8:18 4.5 
6 *8:18 *8:19 53.91 
7 *8:19 *419:io_in[16] 0.765 
*END

*D_NET *9 0.0923411
*CONN
*P io_in[17] I
*I *419:io_in[17] I *D vb_wrapper
*CAP
1 io_in[17] 0.00141746
2 *419:io_in[17] 0.00375227
3 *9:19 0.00999968
4 *9:14 0.0303946
5 *9:13 0.0241472
6 *9:11 0.0105034
7 *9:10 0.0119209
8 *9:19 *43:13 0
9 *9:19 *100:14 0.00020563
*RES
1 io_in[17] *9:10 19.935 
2 *9:10 *9:11 80.55 
3 *9:11 *9:13 4.5 
4 *9:13 *9:14 187.65 
5 *9:14 *9:19 47.61 
6 *9:19 *419:io_in[17] 24.165 
*END

*D_NET *10 0.0620093
*CONN
*P io_in[18] I
*I *419:io_in[18] I *D vb_wrapper
*CAP
1 io_in[18] 0.00107486
2 *419:io_in[18] 0.00727862
3 *10:16 0.011249
4 *10:11 0.017239
5 *10:10 0.0184151
6 *10:7 0.0062214
7 *10:11 *86:11 0
8 *10:16 *33:11 0
9 *10:16 *82:10 0.000531329
10 *10:16 *94:20 0
*RES
1 io_in[18] *10:7 12.825 
2 *10:7 *10:10 43.29 
3 *10:10 *10:11 99.81 
4 *10:11 *10:16 40.05 
5 *10:16 *419:io_in[18] 47.295 
*END

*D_NET *11 0.0566764
*CONN
*P io_in[19] I
*I *419:io_in[19] I *D vb_wrapper
*CAP
1 io_in[19] 0.00377235
2 *419:io_in[19] 2.87269e-05
3 *11:19 0.0179277
4 *11:18 0.0178989
5 *11:16 0.00663821
6 *11:15 0.0104106
*RES
1 io_in[19] *11:15 33.885 
2 *11:15 *11:16 51.39 
3 *11:16 *11:18 4.5 
4 *11:18 *11:19 126.81 
5 *11:19 *419:io_in[19] 0.225 
*END

*D_NET *12 0.964904
*CONN
*P io_in[1] I
*I *419:io_in[1] I *D vb_wrapper
*CAP
1 io_in[1] 0.000466564
2 *419:io_in[1] 0.00100279
3 *12:11 0.0238259
4 *12:10 0.0228232
5 *12:8 0.00197003
6 *12:7 0.00243659
7 *12:8 *39:13 0.288843
8 *12:8 *50:17 0.272124
9 *12:8 *173:11 0.00276543
10 *12:11 *22:19 0.00917271
11 *12:11 *36:11 0.21428
12 *12:11 *46:8 0
13 *12:11 *47:8 3.38181e-05
14 *12:11 *57:8 0.12516
*RES
1 io_in[1] *12:7 8.145 
2 *12:7 *12:8 734.85 
3 *12:8 *12:10 4.5 
4 *12:10 *12:11 612.81 
5 *12:11 *419:io_in[1] 11.385 
*END

*D_NET *13 0.105756
*CONN
*P io_in[20] I
*I *419:io_in[20] I *D vb_wrapper
*CAP
1 io_in[20] 0.00183865
2 *419:io_in[20] 0.00378306
3 *13:19 0.00887642
4 *13:14 0.0214149
5 *13:13 0.0163215
6 *13:11 0.0118174
7 *13:10 0.0136561
8 *13:14 *44:14 0.0280476
9 *13:14 *81:14 0
*RES
1 io_in[20] *13:10 22.455 
2 *13:10 *13:11 90.27 
3 *13:11 *13:13 4.5 
4 *13:13 *13:14 160.83 
5 *13:14 *13:19 39.15 
6 *13:19 *419:io_in[20] 24.165 
*END

*D_NET *14 0.195753
*CONN
*P io_in[21] I
*I *419:io_in[21] I *D vb_wrapper
*CAP
1 io_in[21] 0.000523307
2 *419:io_in[21] 0.00107454
3 *14:11 0.0209323
4 *14:10 0.0198577
5 *14:8 0.0187604
6 *14:7 0.0192837
7 *419:io_in[21] *47:8 0.000286701
8 *419:io_in[21] *57:8 0.000895822
9 *14:8 *16:8 0.114139
*RES
1 io_in[21] *14:7 8.505 
2 *14:7 *14:8 285.57 
3 *14:8 *14:10 4.5 
4 *14:10 *14:11 143.55 
5 *14:11 *419:io_in[21] 17.775 
*END

*D_NET *15 0.170991
*CONN
*P io_in[22] I
*I *419:io_in[22] I *D vb_wrapper
*CAP
1 io_in[22] 0.00485404
2 *419:io_in[22] 0.00659342
3 *15:12 0.053242
4 *15:11 0.0466486
5 *15:9 0.0100923
6 *15:7 0.0149463
7 *419:io_in[22] *100:14 0.00020563
8 *15:12 *34:11 0
9 *15:12 *50:14 0
10 *7:14 *15:12 0.0344084
*RES
1 io_in[22] *15:7 37.305 
2 *15:7 *15:9 76.86 
3 *15:9 *15:11 4.5 
4 *15:11 *15:12 405.09 
5 *15:12 *419:io_in[22] 47.655 
*END

*D_NET *16 0.256667
*CONN
*P io_in[23] I
*I *419:io_in[23] I *D vb_wrapper
*CAP
1 io_in[23] 0.000546288
2 *419:io_in[23] 0.00117839
3 *16:11 0.0209207
4 *16:10 0.0197424
5 *16:8 0.0491342
6 *16:7 0.0496805
7 *419:io_in[23] *47:8 0.000280968
8 *419:io_in[23] *57:8 0.00104502
9 *14:8 *16:8 0.114139
*RES
1 io_in[23] *16:7 8.685 
2 *16:7 *16:8 522.63 
3 *16:8 *16:10 4.5 
4 *16:10 *16:11 143.37 
5 *16:11 *419:io_in[23] 18.315 
*END

*D_NET *17 0.200727
*CONN
*P io_in[24] I
*I *419:io_in[24] I *D vb_wrapper
*CAP
1 io_in[24] 0.00376347
2 *419:io_in[24] 2.87269e-05
3 *17:22 0.0149065
4 *17:21 0.0148777
5 *17:19 0.0772545
6 *17:18 0.0816937
7 *17:15 0.00820271
*RES
1 io_in[24] *17:15 28.845 
2 *17:15 *17:18 38.43 
3 *17:18 *17:19 603.63 
4 *17:19 *17:21 4.5 
5 *17:21 *17:22 105.21 
6 *17:22 *419:io_in[24] 0.225 
*END

*D_NET *18 0.220042
*CONN
*P io_in[25] I
*I *419:io_in[25] I *D vb_wrapper
*CAP
1 io_in[25] 0.000125876
2 *419:io_in[25] 0.0037351
3 *18:18 0.0107293
4 *18:15 0.00699417
5 *18:13 0.099166
6 *18:11 0.0992918
7 *18:13 *87:10 0
*RES
1 io_in[25] *18:11 1.395 
2 *18:11 *18:13 636.75 
3 *18:13 *18:15 4.5 
4 *18:15 *18:18 49.41 
5 *18:18 *419:io_in[25] 24.165 
*END

*D_NET *19 0.178185
*CONN
*P io_in[26] I
*I *419:io_in[26] I *D vb_wrapper
*CAP
1 io_in[26] 0.00137076
2 *419:io_in[26] 0.000419339
3 *19:11 0.0702618
4 *19:10 0.0712132
5 *19:10 *56:8 9.32747e-05
6 *19:11 *21:19 0.0145258
7 *19:11 *62:8 0
8 *19:11 *77:10 0
9 *19:11 *80:8 0.0203004
10 *19:11 *88:8 0
*RES
1 io_in[26] *19:10 19.575 
2 *19:10 *19:11 642.15 
3 *19:11 *419:io_in[26] 7.065 
*END

*D_NET *20 0.249791
*CONN
*P io_in[27] I
*I *419:io_in[27] I *D vb_wrapper
*CAP
1 io_in[27] 0.00363182
2 *419:io_in[27] 7.08271e-05
3 *20:19 0.0651882
4 *20:18 0.0651174
5 *20:16 0.00846623
6 *20:15 0.0120981
7 *20:19 *419:io_in[8] 0.000257015
8 *20:19 *37:17 0.0949139
9 *20:19 *40:11 4.72127e-05
*RES
1 io_in[27] *20:15 32.625 
2 *20:15 *20:16 64.89 
3 *20:16 *20:18 4.5 
4 *20:18 *20:19 638.37 
5 *20:19 *419:io_in[27] 4.95 
*END

*D_NET *21 0.328333
*CONN
*P io_in[28] I
*I *419:io_in[28] I *D vb_wrapper
*CAP
1 io_in[28] 0.000249598
2 *419:io_in[28] 0.000336084
3 *21:19 0.00939775
4 *21:18 0.00906167
5 *21:16 0.017618
6 *21:15 0.017618
7 *21:13 0.0410848
8 *21:11 0.0413344
9 *21:16 *77:11 0
10 *21:19 *32:11 0.00713125
11 *21:19 *41:8 0.0823038
12 *21:19 *80:8 0.0757193
13 *21:19 *88:8 0.00362282
14 *21:19 *112:8 0.00832966
15 *19:11 *21:19 0.0145258
*RES
1 io_in[28] *21:11 2.475 
2 *21:11 *21:13 319.41 
3 *21:13 *21:15 4.5 
4 *21:15 *21:16 135.63 
5 *21:16 *21:18 4.5 
6 *21:18 *21:19 356.49 
7 *21:19 *419:io_in[28] 6.345 
*END

*D_NET *22 0.301416
*CONN
*P io_in[29] I
*I *419:io_in[29] I *D vb_wrapper
*CAP
1 io_in[29] 0.000177869
2 *419:io_in[29] 0.00111967
3 *22:19 0.0284038
4 *22:18 0.0272841
5 *22:16 0.0271426
6 *22:15 0.0271426
7 *22:13 0.0403652
8 *22:11 0.0405431
9 *22:19 *36:11 0.0106206
10 *22:19 *57:8 0.00233071
11 *22:19 *79:8 0.0856449
12 *419:io_in[14] *22:19 0.00146826
13 *12:11 *22:19 0.00917271
*RES
1 io_in[29] *22:11 1.935 
2 *22:11 *22:13 314.01 
3 *22:13 *22:15 4.5 
4 *22:15 *22:16 208.71 
5 *22:16 *22:18 4.5 
6 *22:18 *22:19 374.31 
7 *22:19 *419:io_in[29] 11.925 
*END

*D_NET *23 0.894528
*CONN
*P io_in[2] I
*I *419:io_in[2] I *D vb_wrapper
*CAP
1 io_in[2] 0.000423448
2 *419:io_in[2] 0.00435693
3 *23:11 0.038306
4 *23:10 0.033949
5 *23:8 0.00196656
6 *23:7 0.00239001
7 *419:io_in[2] *100:14 0.00020563
8 *23:8 *32:8 0.236529
9 *23:8 *33:8 0.00380458
10 *23:8 *50:17 0.27009
11 *23:8 *173:11 0.00748312
12 *23:11 *64:10 0.142311
13 *23:11 *75:8 0.018761
14 *23:11 *100:14 0.133952
*RES
1 io_in[2] *23:7 7.785 
2 *23:7 *23:8 687.33 
3 *23:8 *23:10 4.5 
4 *23:10 *23:11 603.09 
5 *23:11 *419:io_in[2] 30.195 
*END

*D_NET *24 0.376783
*CONN
*P io_in[30] I
*I *419:io_in[30] I *D vb_wrapper
*CAP
1 io_in[30] 0.000113196
2 *419:io_in[30] 0.00243652
3 *24:19 0.0343549
4 *24:18 0.0319184
5 *24:16 0.0366714
6 *24:15 0.0366714
7 *24:13 0.0399813
8 *24:11 0.0400945
9 *24:19 *65:8 0.154541
*RES
1 io_in[30] *24:11 1.395 
2 *24:11 *24:13 311.31 
3 *24:13 *24:15 4.5 
4 *24:15 *24:16 281.61 
5 *24:16 *24:18 4.5 
6 *24:18 *24:19 388.17 
7 *24:19 *419:io_in[30] 18.675 
*END

*D_NET *25 0.380058
*CONN
*P io_in[31] I
*I *419:io_in[31] I *D vb_wrapper
*CAP
1 io_in[31] 0.00177706
2 *419:io_in[31] 0.00240597
3 *25:15 0.0293376
4 *25:14 0.0269316
5 *25:12 0.0458038
6 *25:11 0.0458038
7 *25:9 0.038857
8 *25:7 0.040634
9 *25:15 *73:10 0.00765773
10 *25:15 *96:10 0.140849
*RES
1 io_in[31] *25:7 13.185 
2 *25:7 *25:9 303.84 
3 *25:9 *25:11 4.5 
4 *25:11 *25:12 351.81 
5 *25:12 *25:14 4.5 
6 *25:14 *25:15 395.73 
7 *25:15 *419:io_in[31] 20.835 
*END

*D_NET *26 0.380034
*CONN
*P io_in[32] I
*I *419:io_in[32] I *D vb_wrapper
*CAP
1 io_in[32] 0.000323383
2 *419:io_in[32] 0.00282861
3 *26:19 0.032343
4 *26:18 0.0295144
5 *26:16 0.0552218
6 *26:15 0.0552218
7 *26:13 0.0395855
8 *26:11 0.0399089
9 *26:16 *88:11 0
10 *26:19 *63:10 0.0095777
11 *26:19 *109:10 0.0165012
12 *4:11 *26:19 0.0990074
*RES
1 io_in[32] *26:11 3.015 
2 *26:11 *26:13 308.61 
3 *26:13 *26:15 4.5 
4 *26:15 *26:16 424.53 
5 *26:16 *26:18 4.5 
6 *26:18 *26:19 415.71 
7 *26:19 *419:io_in[32] 23.895 
*END

*D_NET *27 0.443686
*CONN
*P io_in[33] I
*I *419:io_in[33] I *D vb_wrapper
*CAP
1 io_in[33] 0.00192467
2 *419:io_in[33] 0.00508803
3 *27:11 0.0723499
4 *27:10 0.0672619
5 *27:8 0.0657674
6 *27:7 0.0676921
7 *27:8 *54:11 0
8 *27:11 *45:10 0
9 *1:11 *27:11 0.163602
*RES
1 io_in[33] *27:7 18.765 
2 *27:7 *27:8 505.53 
3 *27:8 *27:10 4.5 
4 *27:10 *27:11 722.43 
5 *27:11 *419:io_in[33] 39.555 
*END

*D_NET *28 0.383481
*CONN
*P io_in[34] I
*I *419:io_in[34] I *D vb_wrapper
*CAP
1 io_in[34] 0.000177869
2 *419:io_in[34] 0.000121702
3 *28:19 0.0032095
4 *28:18 0.00308779
5 *28:16 0.0699279
6 *28:15 0.0699279
7 *28:13 0.106994
8 *28:11 0.107172
9 *28:13 *332:16 0
10 *28:16 *80:13 0.00213958
11 *28:16 *224:11 0
12 *28:19 *37:11 0.0207233
*RES
1 io_in[34] *28:11 1.935 
2 *28:11 *28:13 801.45 
3 *28:13 *28:15 4.5 
4 *28:15 *28:16 540.09 
5 *28:16 *28:18 4.5 
6 *28:18 *28:19 51.21 
7 *28:19 *419:io_in[34] 14.13 
*END

*D_NET *29 0.402469
*CONN
*P io_in[35] I
*I *419:io_in[35] I *D vb_wrapper
*CAP
1 io_in[35] 0.000113196
2 *419:io_in[35] 0.000754996
3 *29:19 0.00136656
4 *29:16 0.080506
5 *29:15 0.0798945
6 *29:13 0.107258
7 *29:11 0.107371
8 *29:13 *220:8 0
9 *29:16 *224:11 0
10 *29:16 *289:11 0
11 *29:19 *67:8 0.014911
12 *29:19 *69:10 0.00497559
13 *29:19 *113:8 0.00531801
*RES
1 io_in[35] *29:11 1.395 
2 *29:11 *29:13 804.15 
3 *29:13 *29:15 4.5 
4 *29:15 *29:16 613.35 
5 *29:16 *29:19 45.99 
6 *29:19 *419:io_in[35] 8.865 
*END

*D_NET *30 0.416504
*CONN
*P io_in[36] I
*I *419:io_in[36] I *D vb_wrapper
*CAP
1 io_in[36] 0.00177706
2 *419:io_in[36] 0.000784548
3 *30:12 0.089053
4 *30:11 0.0882684
5 *30:9 0.105838
6 *30:7 0.107615
7 *419:io_in[36] *41:8 0.0126306
8 *419:io_in[36] *80:8 0.0105371
9 *30:12 *289:11 0
*RES
1 io_in[36] *30:7 13.185 
2 *30:7 *30:9 793.98 
3 *30:9 *30:11 4.5 
4 *30:11 *30:12 678.33 
5 *30:12 *419:io_in[36] 42.615 
*END

*D_NET *31 0.423411
*CONN
*P io_in[37] I
*I *419:io_in[37] I *D vb_wrapper
*CAP
1 io_in[37] 0.00178347
2 *419:io_in[37] 0.00206264
3 *31:14 0.0984987
4 *31:13 0.0964361
5 *31:11 0.107021
6 *31:10 0.108805
7 *419:io_in[37] *67:8 0.00880463
*RES
1 io_in[37] *31:10 22.095 
2 *31:10 *31:11 803.43 
3 *31:11 *31:13 4.5 
4 *31:13 *31:14 741.33 
5 *31:14 *419:io_in[37] 35.055 
*END

*D_NET *32 0.741111
*CONN
*P io_in[3] I
*I *419:io_in[3] I *D vb_wrapper
*CAP
1 io_in[3] 0.00040189
2 *419:io_in[3] 0.000178599
3 *32:11 0.0460672
4 *32:10 0.0458886
5 *32:8 0.000977076
6 *32:7 0.00137897
7 *32:8 *33:8 0.211475
8 *32:8 *173:11 0.0113026
9 *32:11 *112:8 0.179781
10 *21:19 *32:11 0.00713125
11 *23:8 *32:8 0.236529
*RES
1 io_in[3] *32:7 7.605 
2 *32:7 *32:8 601.83 
3 *32:8 *32:10 4.5 
4 *32:10 *32:11 588.51 
5 *32:11 *419:io_in[3] 5.805 
*END

*D_NET *33 0.680012
*CONN
*P io_in[4] I
*I *419:io_in[4] I *D vb_wrapper
*CAP
1 io_in[4] 0.000469373
2 *419:io_in[4] 0.00647877
3 *33:11 0.0585133
4 *33:10 0.0520345
5 *33:8 0.00722727
6 *33:7 0.00769664
7 *33:8 *35:8 0.175311
8 *33:8 *39:13 0.000343738
9 *33:8 *50:17 0.00186853
10 *33:8 *173:11 0.0166377
11 *33:11 *82:10 0.00136209
12 *33:11 *101:10 0.13679
13 *10:16 *33:11 0
14 *23:8 *33:8 0.00380458
15 *32:8 *33:8 0.211475
*RES
1 io_in[4] *33:7 7.425 
2 *33:7 *33:8 581.49 
3 *33:8 *33:10 4.5 
4 *33:10 *33:11 576.45 
5 *33:11 *419:io_in[4] 49.455 
*END

*D_NET *34 0.539335
*CONN
*P io_in[5] I
*I *419:io_in[5] I *D vb_wrapper
*CAP
1 io_in[5] 0.000634283
2 *419:io_in[5] 0.00632647
3 *34:11 0.0550886
4 *34:10 0.0487621
5 *34:8 0.0338306
6 *34:7 0.0344649
7 *34:8 *39:13 0.00110476
8 *34:11 *53:10 0
9 *34:11 *74:10 0.159352
10 *1:8 *34:8 0.199184
11 *7:11 *34:8 0.000586426
12 *7:14 *34:11 0
13 *15:12 *34:11 0
*RES
1 io_in[5] *34:7 8.685 
2 *34:7 *34:8 514.89 
3 *34:8 *34:10 4.5 
4 *34:10 *34:11 564.39 
5 *34:11 *419:io_in[5] 48.375 
*END

*D_NET *35 0.615921
*CONN
*P io_in[6] I
*I *419:io_in[6] I *D vb_wrapper
*CAP
1 io_in[6] 0.000341619
2 *419:io_in[6] 0.00549877
3 *35:11 0.0369279
4 *35:10 0.0314291
5 *35:8 0.00602593
6 *35:7 0.00636755
7 *35:8 *36:8 0.138633
8 *35:11 *51:10 0.0127427
9 *35:11 *102:14 0.0159493
10 *2:8 *35:8 0.000267705
11 *3:8 *35:8 0.000248162
12 *4:10 *35:8 0.000323835
13 *5:5 *35:11 0.185855
14 *33:8 *35:8 0.175311
*RES
1 io_in[6] *35:7 7.245 
2 *35:7 *35:8 446.13 
3 *35:8 *35:10 4.5 
4 *35:10 *35:11 552.33 
5 *35:11 *419:io_in[6] 42.075 
*END

*D_NET *36 0.658567
*CONN
*P io_in[7] I
*I *419:io_in[7] I *D vb_wrapper
*CAP
1 io_in[7] 0.000320061
2 *419:io_in[7] 0.00105771
3 *36:11 0.00999445
4 *36:10 0.00893673