*SPEF "ieee 1481-1999"
*DESIGN "user_project_wrapper"
*DATE "11:11:11 Fri 11 11, 1111"
*VENDOR "OpenRCX"
*PROGRAM "Parallel Extraction"
*VERSION "1.0"
*DESIGN_FLOW "NAME_SCOPE LOCAL" "PIN_CAP NONE"
*DIVIDER /
*DELIMITER :
*BUS_DELIMITER []
*T_UNIT 1 NS
*C_UNIT 1 PF
*R_UNIT 1 OHM
*L_UNIT 1 HENRY

*NAME_MAP
*1 io_in[0]
*2 io_in[10]
*3 io_in[11]
*4 io_in[12]
*5 io_in[13]
*6 io_in[14]
*7 io_in[15]
*8 io_in[16]
*9 io_in[17]
*10 io_in[18]
*11 io_in[19]
*12 io_in[1]
*13 io_in[20]
*14 io_in[21]
*15 io_in[22]
*16 io_in[23]
*17 io_in[24]
*18 io_in[25]
*19 io_in[26]
*20 io_in[27]
*21 io_in[28]
*22 io_in[29]
*23 io_in[2]
*24 io_in[30]
*25 io_in[31]
*26 io_in[32]
*27 io_in[33]
*28 io_in[34]
*29 io_in[35]
*30 io_in[36]
*31 io_in[37]
*32 io_in[3]
*33 io_in[4]
*34 io_in[5]
*35 io_in[6]
*36 io_in[7]
*37 io_in[8]
*38 io_in[9]
*39 io_oeb[0]
*40 io_oeb[10]
*41 io_oeb[11]
*42 io_oeb[12]
*43 io_oeb[13]
*44 io_oeb[14]
*45 io_oeb[15]
*46 io_oeb[16]
*47 io_oeb[17]
*48 io_oeb[18]
*49 io_oeb[19]
*50 io_oeb[1]
*51 io_oeb[20]
*52 io_oeb[21]
*53 io_oeb[22]
*54 io_oeb[23]
*55 io_oeb[24]
*56 io_oeb[25]
*57 io_oeb[26]
*58 io_oeb[27]
*59 io_oeb[28]
*60 io_oeb[29]
*61 io_oeb[2]
*62 io_oeb[30]
*63 io_oeb[31]
*64 io_oeb[32]
*65 io_oeb[33]
*66 io_oeb[34]
*67 io_oeb[35]
*68 io_oeb[36]
*69 io_oeb[37]
*70 io_oeb[3]
*71 io_oeb[4]
*72 io_oeb[5]
*73 io_oeb[6]
*74 io_oeb[7]
*75 io_oeb[8]
*76 io_oeb[9]
*77 io_out[0]
*78 io_out[10]
*79 io_out[11]
*80 io_out[12]
*81 io_out[13]
*82 io_out[14]
*83 io_out[15]
*84 io_out[16]
*85 io_out[17]
*86 io_out[18]
*87 io_out[19]
*88 io_out[1]
*89 io_out[20]
*90 io_out[21]
*91 io_out[22]
*92 io_out[23]
*93 io_out[24]
*94 io_out[25]
*95 io_out[26]
*96 io_out[27]
*97 io_out[28]
*98 io_out[29]
*99 io_out[2]
*100 io_out[30]
*101 io_out[31]
*102 io_out[32]
*103 io_out[33]
*104 io_out[34]
*105 io_out[35]
*106 io_out[36]
*107 io_out[37]
*108 io_out[3]
*109 io_out[4]
*110 io_out[5]
*111 io_out[6]
*112 io_out[7]
*113 io_out[8]
*114 io_out[9]
*115 la_data_in[0]
*116 la_data_in[10]
*117 la_data_in[11]
*118 la_data_in[12]
*119 la_data_in[13]
*120 la_data_in[14]
*121 la_data_in[15]
*122 la_data_in[16]
*123 la_data_in[17]
*124 la_data_in[18]
*125 la_data_in[19]
*126 la_data_in[1]
*127 la_data_in[20]
*128 la_data_in[21]
*129 la_data_in[22]
*130 la_data_in[23]
*131 la_data_in[24]
*132 la_data_in[25]
*133 la_data_in[26]
*134 la_data_in[27]
*135 la_data_in[28]
*136 la_data_in[29]
*137 la_data_in[2]
*138 la_data_in[30]
*139 la_data_in[31]
*140 la_data_in[32]
*141 la_data_in[33]
*142 la_data_in[34]
*143 la_data_in[35]
*144 la_data_in[36]
*145 la_data_in[37]
*146 la_data_in[38]
*147 la_data_in[39]
*148 la_data_in[3]
*149 la_data_in[40]
*150 la_data_in[41]
*151 la_data_in[42]
*152 la_data_in[43]
*153 la_data_in[44]
*154 la_data_in[45]
*155 la_data_in[46]
*156 la_data_in[47]
*157 la_data_in[48]
*158 la_data_in[49]
*159 la_data_in[4]
*160 la_data_in[50]
*161 la_data_in[51]
*162 la_data_in[52]
*163 la_data_in[53]
*164 la_data_in[54]
*165 la_data_in[55]
*166 la_data_in[56]
*167 la_data_in[57]
*168 la_data_in[58]
*169 la_data_in[59]
*170 la_data_in[5]
*171 la_data_in[60]
*172 la_data_in[61]
*173 la_data_in[62]
*174 la_data_in[63]
*175 la_data_in[6]
*176 la_data_in[7]
*177 la_data_in[8]
*178 la_data_in[9]
*179 la_data_out[0]
*180 la_data_out[10]
*181 la_data_out[11]
*182 la_data_out[12]
*183 la_data_out[13]
*184 la_data_out[14]
*185 la_data_out[15]
*186 la_data_out[16]
*187 la_data_out[17]
*188 la_data_out[18]
*189 la_data_out[19]
*190 la_data_out[1]
*191 la_data_out[20]
*192 la_data_out[21]
*193 la_data_out[22]
*194 la_data_out[23]
*195 la_data_out[24]
*196 la_data_out[25]
*197 la_data_out[26]
*198 la_data_out[27]
*199 la_data_out[28]
*200 la_data_out[29]
*201 la_data_out[2]
*202 la_data_out[30]
*203 la_data_out[31]
*204 la_data_out[32]
*205 la_data_out[33]
*206 la_data_out[34]
*207 la_data_out[35]
*208 la_data_out[36]
*209 la_data_out[37]
*210 la_data_out[38]
*211 la_data_out[39]
*212 la_data_out[3]
*213 la_data_out[40]
*214 la_data_out[41]
*215 la_data_out[42]
*216 la_data_out[43]
*217 la_data_out[44]
*218 la_data_out[45]
*219 la_data_out[46]
*220 la_data_out[47]
*221 la_data_out[48]
*222 la_data_out[49]
*223 la_data_out[4]
*224 la_data_out[50]
*225 la_data_out[51]
*226 la_data_out[52]
*227 la_data_out[53]
*228 la_data_out[54]
*229 la_data_out[55]
*230 la_data_out[56]
*231 la_data_out[57]
*232 la_data_out[58]
*233 la_data_out[59]
*234 la_data_out[5]
*235 la_data_out[60]
*236 la_data_out[61]
*237 la_data_out[62]
*238 la_data_out[63]
*239 la_data_out[6]
*240 la_data_out[7]
*241 la_data_out[8]
*242 la_data_out[9]
*243 la_oenb[0]
*244 la_oenb[10]
*245 la_oenb[11]
*246 la_oenb[12]
*247 la_oenb[13]
*248 la_oenb[14]
*249 la_oenb[15]
*250 la_oenb[16]
*251 la_oenb[17]
*252 la_oenb[18]
*253 la_oenb[19]
*254 la_oenb[1]
*255 la_oenb[20]
*256 la_oenb[21]
*257 la_oenb[22]
*258 la_oenb[23]
*259 la_oenb[24]
*260 la_oenb[25]
*261 la_oenb[26]
*262 la_oenb[27]
*263 la_oenb[28]
*264 la_oenb[29]
*265 la_oenb[2]
*266 la_oenb[30]
*267 la_oenb[31]
*268 la_oenb[32]
*269 la_oenb[33]
*270 la_oenb[34]
*271 la_oenb[35]
*272 la_oenb[36]
*273 la_oenb[37]
*274 la_oenb[38]
*275 la_oenb[39]
*276 la_oenb[3]
*277 la_oenb[40]
*278 la_oenb[41]
*279 la_oenb[42]
*280 la_oenb[43]
*281 la_oenb[44]
*282 la_oenb[45]
*283 la_oenb[46]
*284 la_oenb[47]
*285 la_oenb[48]
*286 la_oenb[49]
*287 la_oenb[4]
*288 la_oenb[50]
*289 la_oenb[51]
*290 la_oenb[52]
*291 la_oenb[53]
*292 la_oenb[54]
*293 la_oenb[55]
*294 la_oenb[56]
*295 la_oenb[57]
*296 la_oenb[58]
*297 la_oenb[59]
*298 la_oenb[5]
*299 la_oenb[60]
*300 la_oenb[61]
*301 la_oenb[62]
*302 la_oenb[63]
*303 la_oenb[6]
*304 la_oenb[7]
*305 la_oenb[8]
*306 la_oenb[9]
*307 user_clock2
*308 user_irq[0]
*309 user_irq[1]
*310 user_irq[2]
*313 wb_clk_i
*314 wb_rst_i
*315 wbs_ack_o
*316 wbs_adr_i[0]
*317 wbs_adr_i[10]
*318 wbs_adr_i[11]
*319 wbs_adr_i[12]
*320 wbs_adr_i[13]
*321 wbs_adr_i[14]
*322 wbs_adr_i[15]
*323 wbs_adr_i[16]
*324 wbs_adr_i[17]
*325 wbs_adr_i[18]
*326 wbs_adr_i[19]
*327 wbs_adr_i[1]
*328 wbs_adr_i[20]
*329 wbs_adr_i[21]
*330 wbs_adr_i[22]
*331 wbs_adr_i[23]
*332 wbs_adr_i[24]
*333 wbs_adr_i[25]
*334 wbs_adr_i[26]
*335 wbs_adr_i[27]
*336 wbs_adr_i[28]
*337 wbs_adr_i[29]
*338 wbs_adr_i[2]
*339 wbs_adr_i[30]
*340 wbs_adr_i[31]
*341 wbs_adr_i[3]
*342 wbs_adr_i[4]
*343 wbs_adr_i[5]
*344 wbs_adr_i[6]
*345 wbs_adr_i[7]
*346 wbs_adr_i[8]
*347 wbs_adr_i[9]
*348 wbs_cyc_i
*349 wbs_dat_i[0]
*350 wbs_dat_i[10]
*351 wbs_dat_i[11]
*352 wbs_dat_i[12]
*353 wbs_dat_i[13]
*354 wbs_dat_i[14]
*355 wbs_dat_i[15]
*356 wbs_dat_i[16]
*357 wbs_dat_i[17]
*358 wbs_dat_i[18]
*359 wbs_dat_i[19]
*360 wbs_dat_i[1]
*361 wbs_dat_i[20]
*362 wbs_dat_i[21]
*363 wbs_dat_i[22]
*364 wbs_dat_i[23]
*365 wbs_dat_i[24]
*366 wbs_dat_i[25]
*367 wbs_dat_i[26]
*368 wbs_dat_i[27]
*369 wbs_dat_i[28]
*370 wbs_dat_i[29]
*371 wbs_dat_i[2]
*372 wbs_dat_i[30]
*373 wbs_dat_i[31]
*374 wbs_dat_i[3]
*375 wbs_dat_i[4]
*376 wbs_dat_i[5]
*377 wbs_dat_i[6]
*378 wbs_dat_i[7]
*379 wbs_dat_i[8]
*380 wbs_dat_i[9]
*381 wbs_dat_o[0]
*382 wbs_dat_o[10]
*383 wbs_dat_o[11]
*384 wbs_dat_o[12]
*385 wbs_dat_o[13]
*386 wbs_dat_o[14]
*387 wbs_dat_o[15]
*388 wbs_dat_o[16]
*389 wbs_dat_o[17]
*390 wbs_dat_o[18]
*391 wbs_dat_o[19]
*392 wbs_dat_o[1]
*393 wbs_dat_o[20]
*394 wbs_dat_o[21]
*395 wbs_dat_o[22]
*396 wbs_dat_o[23]
*397 wbs_dat_o[24]
*398 wbs_dat_o[25]
*399 wbs_dat_o[26]
*400 wbs_dat_o[27]
*401 wbs_dat_o[28]
*402 wbs_dat_o[29]
*403 wbs_dat_o[2]
*404 wbs_dat_o[30]
*405 wbs_dat_o[31]
*406 wbs_dat_o[3]
*407 wbs_dat_o[4]
*408 wbs_dat_o[5]
*409 wbs_dat_o[6]
*410 wbs_dat_o[7]
*411 wbs_dat_o[8]
*412 wbs_dat_o[9]
*413 wbs_sel_i[0]
*414 wbs_sel_i[1]
*415 wbs_sel_i[2]
*416 wbs_sel_i[3]
*417 wbs_stb_i
*418 wbs_we_i
*419 mprj

*PORTS
io_in[0] I
io_in[10] I
io_in[11] I
io_in[12] I
io_in[13] I
io_in[14] I
io_in[15] I
io_in[16] I
io_in[17] I
io_in[18] I
io_in[19] I
io_in[1] I
io_in[20] I
io_in[21] I
io_in[22] I
io_in[23] I
io_in[24] I
io_in[25] I
io_in[26] I
io_in[27] I
io_in[28] I
io_in[29] I
io_in[2] I
io_in[30] I
io_in[31] I
io_in[32] I
io_in[33] I
io_in[34] I
io_in[35] I
io_in[36] I
io_in[37] I
io_in[3] I
io_in[4] I
io_in[5] I
io_in[6] I
io_in[7] I
io_in[8] I
io_in[9] I
io_oeb[0] O
io_oeb[10] O
io_oeb[11] O
io_oeb[12] O
io_oeb[13] O
io_oeb[14] O
io_oeb[15] O
io_oeb[16] O
io_oeb[17] O
io_oeb[18] O
io_oeb[19] O
io_oeb[1] O
io_oeb[20] O
io_oeb[21] O
io_oeb[22] O
io_oeb[23] O
io_oeb[24] O
io_oeb[25] O
io_oeb[26] O
io_oeb[27] O
io_oeb[28] O
io_oeb[29] O
io_oeb[2] O
io_oeb[30] O
io_oeb[31] O
io_oeb[32] O
io_oeb[33] O
io_oeb[34] O
io_oeb[35] O
io_oeb[36] O
io_oeb[37] O
io_oeb[3] O
io_oeb[4] O
io_oeb[5] O
io_oeb[6] O
io_oeb[7] O
io_oeb[8] O
io_oeb[9] O
io_out[0] O
io_out[10] O
io_out[11] O
io_out[12] O
io_out[13] O
io_out[14] O
io_out[15] O
io_out[16] O
io_out[17] O
io_out[18] O
io_out[19] O
io_out[1] O
io_out[20] O
io_out[21] O
io_out[22] O
io_out[23] O
io_out[24] O
io_out[25] O
io_out[26] O
io_out[27] O
io_out[28] O
io_out[29] O
io_out[2] O
io_out[30] O
io_out[31] O
io_out[32] O
io_out[33] O
io_out[34] O
io_out[35] O
io_out[36] O
io_out[37] O
io_out[3] O
io_out[4] O
io_out[5] O
io_out[6] O
io_out[7] O
io_out[8] O
io_out[9] O
la_data_in[0] I
la_data_in[10] I
la_data_in[11] I
la_data_in[12] I
la_data_in[13] I
la_data_in[14] I
la_data_in[15] I
la_data_in[16] I
la_data_in[17] I
la_data_in[18] I
la_data_in[19] I
la_data_in[1] I
la_data_in[20] I
la_data_in[21] I
la_data_in[22] I
la_data_in[23] I
la_data_in[24] I
la_data_in[25] I
la_data_in[26] I
la_data_in[27] I
la_data_in[28] I
la_data_in[29] I
la_data_in[2] I
la_data_in[30] I
la_data_in[31] I
la_data_in[32] I
la_data_in[33] I
la_data_in[34] I
la_data_in[35] I
la_data_in[36] I
la_data_in[37] I
la_data_in[38] I
la_data_in[39] I
la_data_in[3] I
la_data_in[40] I
la_data_in[41] I
la_data_in[42] I
la_data_in[43] I
la_data_in[44] I
la_data_in[45] I
la_data_in[46] I
la_data_in[47] I
la_data_in[48] I
la_data_in[49] I
la_data_in[4] I
la_data_in[50] I
la_data_in[51] I
la_data_in[52] I
la_data_in[53] I
la_data_in[54] I
la_data_in[55] I
la_data_in[56] I
la_data_in[57] I
la_data_in[58] I
la_data_in[59] I
la_data_in[5] I
la_data_in[60] I
la_data_in[61] I
la_data_in[62] I
la_data_in[63] I
la_data_in[6] I
la_data_in[7] I
la_data_in[8] I
la_data_in[9] I
la_data_out[0] O
la_data_out[10] O
la_data_out[11] O
la_data_out[12] O
la_data_out[13] O
la_data_out[14] O
la_data_out[15] O
la_data_out[16] O
la_data_out[17] O
la_data_out[18] O
la_data_out[19] O
la_data_out[1] O
la_data_out[20] O
la_data_out[21] O
la_data_out[22] O
la_data_out[23] O
la_data_out[24] O
la_data_out[25] O
la_data_out[26] O
la_data_out[27] O
la_data_out[28] O
la_data_out[29] O
la_data_out[2] O
la_data_out[30] O
la_data_out[31] O
la_data_out[32] O
la_data_out[33] O
la_data_out[34] O
la_data_out[35] O
la_data_out[36] O
la_data_out[37] O
la_data_out[38] O
la_data_out[39] O
la_data_out[3] O
la_data_out[40] O
la_data_out[41] O
la_data_out[42] O
la_data_out[43] O
la_data_out[44] O
la_data_out[45] O
la_data_out[46] O
la_data_out[47] O
la_data_out[48] O
la_data_out[49] O
la_data_out[4] O
la_data_out[50] O
la_data_out[51] O
la_data_out[52] O
la_data_out[53] O
la_data_out[54] O
la_data_out[55] O
la_data_out[56] O
la_data_out[57] O
la_data_out[58] O
la_data_out[59] O
la_data_out[5] O
la_data_out[60] O
la_data_out[61] O
la_data_out[62] O
la_data_out[63] O
la_data_out[6] O
la_data_out[7] O
la_data_out[8] O
la_data_out[9] O
la_oenb[0] I
la_oenb[10] I
la_oenb[11] I
la_oenb[12] I
la_oenb[13] I
la_oenb[14] I
la_oenb[15] I
la_oenb[16] I
la_oenb[17] I
la_oenb[18] I
la_oenb[19] I
la_oenb[1] I
la_oenb[20] I
la_oenb[21] I
la_oenb[22] I
la_oenb[23] I
la_oenb[24] I
la_oenb[25] I
la_oenb[26] I
la_oenb[27] I
la_oenb[28] I
la_oenb[29] I
la_oenb[2] I
la_oenb[30] I
la_oenb[31] I
la_oenb[32] I
la_oenb[33] I
la_oenb[34] I
la_oenb[35] I
la_oenb[36] I
la_oenb[37] I
la_oenb[38] I
la_oenb[39] I
la_oenb[3] I
la_oenb[40] I
la_oenb[41] I
la_oenb[42] I
la_oenb[43] I
la_oenb[44] I
la_oenb[45] I
la_oenb[46] I
la_oenb[47] I
la_oenb[48] I
la_oenb[49] I
la_oenb[4] I
la_oenb[50] I
la_oenb[51] I
la_oenb[52] I
la_oenb[53] I
la_oenb[54] I
la_oenb[55] I
la_oenb[56] I
la_oenb[57] I
la_oenb[58] I
la_oenb[59] I
la_oenb[5] I
la_oenb[60] I
la_oenb[61] I
la_oenb[62] I
la_oenb[63] I
la_oenb[6] I
la_oenb[7] I
la_oenb[8] I
la_oenb[9] I
user_clock2 I
user_irq[0] O
user_irq[1] O
user_irq[2] O
wb_clk_i I
wb_rst_i I
wbs_ack_o O
wbs_adr_i[0] I
wbs_adr_i[10] I
wbs_adr_i[11] I
wbs_adr_i[12] I
wbs_adr_i[13] I
wbs_adr_i[14] I
wbs_adr_i[15] I
wbs_adr_i[16] I
wbs_adr_i[17] I
wbs_adr_i[18] I
wbs_adr_i[19] I
wbs_adr_i[1] I
wbs_adr_i[20] I
wbs_adr_i[21] I
wbs_adr_i[22] I
wbs_adr_i[23] I
wbs_adr_i[24] I
wbs_adr_i[25] I
wbs_adr_i[26] I
wbs_adr_i[27] I
wbs_adr_i[28] I
wbs_adr_i[29] I
wbs_adr_i[2] I
wbs_adr_i[30] I
wbs_adr_i[31] I
wbs_adr_i[3] I
wbs_adr_i[4] I
wbs_adr_i[5] I
wbs_adr_i[6] I
wbs_adr_i[7] I
wbs_adr_i[8] I
wbs_adr_i[9] I
wbs_cyc_i I
wbs_dat_i[0] I
wbs_dat_i[10] I
wbs_dat_i[11] I
wbs_dat_i[12] I
wbs_dat_i[13] I
wbs_dat_i[14] I
wbs_dat_i[15] I
wbs_dat_i[16] I
wbs_dat_i[17] I
wbs_dat_i[18] I
wbs_dat_i[19] I
wbs_dat_i[1] I
wbs_dat_i[20] I
wbs_dat_i[21] I
wbs_dat_i[22] I
wbs_dat_i[23] I
wbs_dat_i[24] I
wbs_dat_i[25] I
wbs_dat_i[26] I
wbs_dat_i[27] I
wbs_dat_i[28] I
wbs_dat_i[29] I
wbs_dat_i[2] I
wbs_dat_i[30] I
wbs_dat_i[31] I
wbs_dat_i[3] I
wbs_dat_i[4] I
wbs_dat_i[5] I
wbs_dat_i[6] I
wbs_dat_i[7] I
wbs_dat_i[8] I
wbs_dat_i[9] I
wbs_dat_o[0] O
wbs_dat_o[10] O
wbs_dat_o[11] O
wbs_dat_o[12] O
wbs_dat_o[13] O
wbs_dat_o[14] O
wbs_dat_o[15] O
wbs_dat_o[16] O
wbs_dat_o[17] O
wbs_dat_o[18] O
wbs_dat_o[19] O
wbs_dat_o[1] O
wbs_dat_o[20] O
wbs_dat_o[21] O
wbs_dat_o[22] O
wbs_dat_o[23] O
wbs_dat_o[24] O
wbs_dat_o[25] O
wbs_dat_o[26] O
wbs_dat_o[27] O
wbs_dat_o[28] O
wbs_dat_o[29] O
wbs_dat_o[2] O
wbs_dat_o[30] O
wbs_dat_o[31] O
wbs_dat_o[3] O
wbs_dat_o[4] O
wbs_dat_o[5] O
wbs_dat_o[6] O
wbs_dat_o[7] O
wbs_dat_o[8] O
wbs_dat_o[9] O
wbs_sel_i[0] I
wbs_sel_i[1] I
wbs_sel_i[2] I
wbs_sel_i[3] I
wbs_stb_i I
wbs_we_i I

*D_NET *1 0.883611
*CONN
*P io_in[0] I
*I *419:io_in[0] I *D vb_wrapper
*CAP
1 io_in[0] 0.000271078
2 *419:io_in[0] 0.000586318
3 *1:11 0.033443
4 *1:10 0.0328566
5 *1:8 0.0385951
6 *1:7 0.0388662
7 *1:8 *12:8 0.386974
8 *1:11 *419:io_in[11] 0.00142991
9 *1:11 *419:io_in[18] 0.00105689
10 *1:11 *419:io_in[22] 0.00155424
11 *1:11 *24:11 0.257444
12 *1:11 *49:8 0.00816495
13 *1:11 *51:8 0.00951196
14 *1:11 *52:8 0.0103991
15 *1:11 *56:8 0.00222566
16 *1:11 *71:8 0.0325354
17 *1:11 *78:8 0
18 *1:11 *83:8 0
19 *1:11 *84:8 0.0276966
*RES
1 io_in[0] *1:7 6.885 
2 *1:7 *1:8 637.11 
3 *1:8 *1:10 4.5 
4 *1:10 *1:11 793.53 
5 *1:11 *419:io_in[0] 9.945 
*END

*D_NET *2 0.212217
*CONN
*P io_in[10] I
*I *419:io_in[10] I *D vb_wrapper
*CAP
1 io_in[10] 0.0340079
2 *419:io_in[10] 0.00104306
3 *2:11 0.0144216
4 *2:10 0.0135544
5 *2:5 0.0341838
6 *2:5 *69:8 0.0708111
7 *2:5 *73:8 0.00731115
8 *2:11 io_out[28] 0
9 *2:11 *38:15 0.02389
10 *2:11 *69:8 0
11 *2:11 *91:10 0.0129935
*RES
1 io_in[10] *2:5 434.565 
2 *2:5 *2:10 10.53 
3 *2:10 *2:11 237.15 
4 *2:11 *419:io_in[10] 13.905 
*END

*D_NET *3 0.138728
*CONN
*P io_in[11] I
*I *419:io_in[11] I *D vb_wrapper
*CAP
1 io_in[11] 0.000280649
2 *419:io_in[11] 0.000655293
3 *3:16 0.00775229
4 *3:15 0.00709699
5 *3:13 0.0604729
6 *3:11 0.0607536
7 *419:io_in[11] *52:8 0.00028598
8 *3:16 *41:7 0
9 *1:11 *419:io_in[11] 0.00142991
*RES
1 io_in[11] *3:11 2.655 
2 *3:11 *3:13 657.27 
3 *3:13 *3:15 4.5 
4 *3:15 *3:16 67.77 
5 *3:16 *419:io_in[11] 16.335 
*END

*D_NET *4 0.21194
*CONN
*P io_in[12] I
*I *419:io_in[12] I *D vb_wrapper
*CAP
1 io_in[12] 0.000255153
2 *419:io_in[12] 0.00348641
3 *4:11 0.0591569
4 *4:10 0.0556705
5 *4:8 0.00616469
6 *4:7 0.00641984
7 *419:io_in[12] *79:13 0
8 *4:8 *5:8 0.0719937
9 *4:11 io_out[10] 0.000152316
10 *4:11 *21:13 0
11 *4:11 *26:19 0.0085359
12 *4:11 *34:11 0
13 *4:11 *66:12 0
14 *4:11 *79:12 0.000104911
*RES
1 io_in[12] *4:7 6.705 
2 *4:7 *4:8 108.27 
3 *4:8 *4:10 4.5 
4 *4:10 *4:11 645.57 
5 *4:11 *419:io_in[12] 36.495 
*END

*D_NET *5 0.223152
*CONN
*P io_in[13] I
*I *419:io_in[13] I *D vb_wrapper
*CAP
1 io_in[13] 0.000271078
2 *419:io_in[13] 0.003975
3 *5:11 0.0583839
4 *5:10 0.0544089
5 *5:8 0.0123066
6 *5:7 0.0125777
7 *5:11 *29:19 0
8 *5:11 *66:12 0.0092353
9 *4:8 *5:8 0.0719937
*RES
1 io_in[13] *5:7 6.885 
2 *5:7 *5:8 169.83 
3 *5:8 *5:10 4.5 
4 *5:10 *5:11 634.59 
5 *5:11 *419:io_in[13] 40.995 
*END

*D_NET *6 0.169036
*CONN
*P io_in[14] I
*I *419:io_in[14] I *D vb_wrapper
*CAP
1 io_in[14] 0.00395713
2 *419:io_in[14] 0.00369261
3 *6:12 0.0273645
4 *6:11 0.0236718
5 *6:9 0.0531962
6 *6:7 0.0571534
*RES
1 io_in[14] *6:7 43.425 
2 *6:7 *6:9 580.5 
3 *6:9 *6:11 4.5 
4 *6:11 *6:12 235.08 
5 *6:12 *419:io_in[14] 33.975 
*END

*D_NET *7 0.494291
*CONN
*P io_in[15] I
*I *419:io_in[15] I *D vb_wrapper
*CAP
1 io_in[15] 0.000255689
2 *419:io_in[15] 0.000517692
3 *7:11 0.0324669
4 *7:10 0.0319492
5 *7:8 0.039288
6 *7:7 0.0395437
7 *419:io_in[15] *78:8 0.000371691
8 *419:io_in[15] *103:8 0.000509769
9 *7:8 *45:14 0.349205
10 *7:11 *45:10 0.000184127
*RES
1 io_in[15] *7:7 6.885 
2 *7:7 *7:8 587.61 
3 *7:8 *7:10 4.5 
4 *7:10 *7:11 315.45 
5 *7:11 *419:io_in[15] 15.975 
*END

*D_NET *8 0.154174
*CONN
*P io_in[16] I
*I *419:io_in[16] I *D vb_wrapper
*CAP
1 io_in[16] 0.000164983
2 *419:io_in[16] 0.0044879
3 *8:16 0.0429191
4 *8:15 0.0384312
5 *8:13 0.0282445
6 *8:11 0.0284094
7 *8:16 *50:10 0
8 *8:16 *109:14 0.0115169
*RES
1 io_in[16] *8:11 1.935 
2 *8:11 *8:13 281.97 
3 *8:13 *8:15 4.5 
4 *8:15 *8:16 472.59 
5 *8:16 *419:io_in[16] 45.855 
*END

*D_NET *9 0.130694
*CONN
*P io_in[17] I
*I *419:io_in[17] I *D vb_wrapper
*CAP
1 io_in[17] 0.000291323
2 *419:io_in[17] 9.37343e-05
3 *9:19 0.00629805
4 *9:18 0.00620432
5 *9:16 0.0323887
6 *9:15 0.0323887
7 *9:13 0.0263691
8 *9:11 0.0266604
*RES
1 io_in[17] *9:11 3.015 
2 *9:11 *9:13 263.07 
3 *9:13 *9:15 4.5 
4 *9:15 *9:16 351.09 
5 *9:16 *9:18 4.5 
6 *9:18 *9:19 58.05 
7 *9:19 *419:io_in[17] 0.945 
*END

*D_NET *10 0.109601
*CONN
*P io_in[18] I
*I *419:io_in[18] I *D vb_wrapper
*CAP
1 io_in[18] 0.000104982
2 *419:io_in[18] 0.000620624
3 *10:19 0.00678736
4 *10:18 0.00616673
5 *10:16 0.0213874
6 *10:15 0.0213874
7 *10:13 0.0258164
8 *10:11 0.0259214
9 *419:io_in[18] *51:8 0.000352295
10 *10:19 *48:7 0
11 *1:11 *419:io_in[18] 0.00105689
*RES
1 io_in[18] *10:11 1.395 
2 *10:11 *10:13 257.67 
3 *10:13 *10:15 4.5 
4 *10:15 *10:16 231.03 
5 *10:16 *10:18 4.5 
6 *10:18 *10:19 58.23 
7 *10:19 *419:io_in[18] 15.795 
*END

*D_NET *11 0.087133
*CONN
*P io_in[19] I
*I *419:io_in[19] I *D vb_wrapper
*CAP
1 io_in[19] 0.000224243
2 *419:io_in[19] 0.00370429
3 *11:19 0.0226542
4 *11:18 0.0189499
5 *11:16 0.0105352
6 *11:15 0.0105352
7 *11:13 0.0101528
8 *11:11 0.0103771
*RES
1 io_in[19] *11:11 2.475 
2 *11:11 *11:13 101.07 
3 *11:13 *11:15 4.5 
4 *11:15 *11:16 113.49 
5 *11:16 *11:18 4.5 
6 *11:18 *11:19 187.74 
7 *11:19 *419:io_in[19] 33.975 
*END

*D_NET *12 1.03397
*CONN
*P io_in[1] I
*I *419:io_in[1] I *D vb_wrapper
*CAP
1 io_in[1] 0.000255153
2 *419:io_in[1] 0
3 *12:11 0.0437294
4 *12:10 0.0437294
5 *12:8 0.0316154
6 *12:7 0.0318705
7 *12:11 *32:19 0.0135944
8 *12:11 *63:8 0.00343177
9 *12:11 *112:10 0.478769
10 *1:8 *12:8 0.386974
*RES
1 io_in[1] *12:7 6.705 
2 *12:7 *12:8 567.45 
3 *12:8 *12:10 4.5 
4 *12:10 *12:11 781.29 
5 *12:11 *419:io_in[1] 4.5 
*END

*D_NET *13 0.0666321
*CONN
*P io_in[20] I
*I *419:io_in[20] I *D vb_wrapper
*CAP
1 io_in[20] 0.00436262
2 *419:io_in[20] 4.01718e-05
3 *13:15 0.0234864
4 *13:14 0.0239882
5 *13:9 0.00546697
6 *13:7 0.00928765
7 *13:14 *48:10 0
*RES
1 io_in[20] *13:7 43.245 
2 *13:7 *13:9 48.78 
3 *13:9 *13:14 14.49 
4 *13:14 *13:15 229.41 
5 *13:15 *419:io_in[20] 0.405 
*END

*D_NET *14 0.0886994
*CONN
*P io_in[21] I
*I *419:io_in[21] I *D vb_wrapper
*CAP
1 io_in[21] 0.00112517
2 *419:io_in[21] 0.00376236
3 *14:17 0.0159457
4 *14:16 0.0121833
5 *14:14 0.0111631
6 *14:13 0.0111631
7 *14:11 0.0161158
8 *14:10 0.0172409
9 *14:10 *91:14 0
*RES
1 io_in[21] *14:10 19.215 
2 *14:10 *14:11 160.83 
3 *14:11 *14:13 4.5 
4 *14:13 *14:14 120.33 
5 *14:14 *14:16 4.5 
6 *14:16 *14:17 120.24 
7 *14:17 *419:io_in[21] 34.515 
*END

*D_NET *15 0.139757
*CONN
*P io_in[22] I
*I *419:io_in[22] I *D vb_wrapper
*CAP
1 io_in[22] 0.000290594
2 *419:io_in[22] 0.000618961
3 *15:21 0.00474265
4 *15:16 0.0251529
5 *15:15 0.0210292
6 *15:13 0.0277262
7 *15:11 0.0280168
8 *419:io_in[22] *49:8 0.00155424
9 *15:16 *86:8 0.0271682
10 *15:16 *99:10 0
11 *15:16 *111:14 0
12 *15:21 *82:17 0.00190265
13 *1:11 *419:io_in[22] 0.00155424
*RES
1 io_in[22] *15:11 3.015 
2 *15:11 *15:13 276.57 
3 *15:13 *15:15 4.5 
4 *15:15 *15:16 244.53 
5 *15:16 *15:21 48.33 
6 *15:21 *419:io_in[22] 12.015 
*END

*D_NET *16 0.140174
*CONN
*P io_in[23] I
*I *419:io_in[23] I *D vb_wrapper
*CAP
1 io_in[23] 0.000104982
2 *419:io_in[23] 0.00366442
3 *16:21 0.00674971
4 *16:16 0.0402438
5 *16:15 0.0371585
6 *16:13 0.0260739
7 *16:11 0.0261789
*RES
1 io_in[23] *16:11 1.395 
2 *16:11 *16:13 260.37 
3 *16:13 *16:15 4.5 
4 *16:15 *16:16 361.89 
5 *16:16 *16:21 34.29 
6 *16:21 *419:io_in[23] 33.705 
*END

*D_NET *17 0.147971
*CONN
*P io_in[24] I
*I *419:io_in[24] I *D vb_wrapper
*CAP
1 io_in[24] 0.0425401
2 *419:io_in[24] 0.00369126
3 *17:8 0.0314452
4 *17:7 0.0277539
5 *17:5 0.0425401
*RES
1 io_in[24] *17:5 463.905 
2 *17:5 *17:7 4.5 
3 *17:7 *17:8 275.58 
4 *17:8 *419:io_in[24] 33.975 
*END

*D_NET *18 0.141966
*CONN
*P io_in[25] I
*I *419:io_in[25] I *D vb_wrapper
*CAP
1 io_in[25] 0.000237175
2 *419:io_in[25] 4.18227e-05
3 *18:16 0.0268346
4 *18:15 0.0267928
5 *18:13 0.0439113
6 *18:11 0.0441485
*RES
1 io_in[25] *18:11 2.295 
2 *18:11 *18:13 477.45 
3 *18:13 *18:15 4.5 
4 *18:15 *18:16 237.69 
5 *18:16 *419:io_in[25] 0.405 
*END

*D_NET *19 0.125475
*CONN
*P io_in[26] I
*I *419:io_in[26] I *D vb_wrapper
*CAP
1 io_in[26] 0.00010158
2 *419:io_in[26] 0.0037435
3 *19:16 0.0176589
4 *19:15 0.0139154
5 *19:13 0.044977
6 *19:11 0.0450785
*RES
1 io_in[26] *19:11 1.215 
2 *19:11 *19:13 488.25 
3 *19:13 *19:15 4.5 
4 *19:15 *19:16 137.88 
5 *19:16 *419:io_in[26] 34.515 
*END

*D_NET *20 0.124615
*CONN
*P io_in[27] I
*I *419:io_in[27] I *D vb_wrapper
*CAP
1 io_in[27] 0.000310538
2 *419:io_in[27] 9.37343e-05
3 *20:16 0.0105027
4 *20:15 0.010409
5 *20:13 0.0514944
6 *20:11 0.0518049
*RES
1 io_in[27] *20:11 2.835 
2 *20:11 *20:13 501.75 
3 *20:13 *20:15 4.5 
4 *20:15 *20:16 99.99 
5 *20:16 *419:io_in[27] 0.945 
*END

*D_NET *21 0.35248
*CONN
*P io_in[28] I
*I *419:io_in[28] I *D vb_wrapper
*CAP
1 io_in[28] 0.000167681
2 *419:io_in[28] 0.00382209
3 *21:13 0.0403322
4 *21:11 0.0366778
5 *21:13 *66:12 0.271481
6 *4:11 *21:13 0
*RES
1 io_in[28] *21:11 1.755 
2 *21:11 *21:13 512.55 
3 *21:13 *419:io_in[28] 39.735 
*END

*D_NET *22 0.516903
*CONN
*P io_in[29] I
*I *419:io_in[29] I *D vb_wrapper
*CAP
1 io_in[29] 0.00113819
2 *419:io_in[29] 0.000918454
3 *22:11 0.0212737
4 *22:10 0.0246883
5 *22:7 0.00547126
6 *22:11 *61:8 0.228847
7 *22:11 *88:8 0.234566
*RES
1 io_in[29] *22:7 16.065 
2 *22:7 *22:10 47.61 
3 *22:10 *22:11 515.97 
4 *22:11 *419:io_in[29] 12.825 
*END

*D_NET *23 0.481768
*CONN
*P io_in[2] I
*I *419:io_in[2] I *D vb_wrapper
*CAP
1 io_in[2] 0.00251563
2 *419:io_in[2] 0.0021665
3 *23:14 0.0508989
4 *23:13 0.0487324
5 *23:11 0.0615045
6 *23:10 0.0640201
7 *419:io_in[2] *39:10 0.0107549
8 *419:io_in[2] *56:8 0
9 *419:io_in[2] *59:14 0
10 *419:io_in[2] *103:8 0.0211986
11 *23:11 *419:la_data_in[10] 0
12 *23:11 *419:la_data_in[12] 0
13 *23:11 *419:la_data_in[23] 0
14 *23:11 *419:la_data_in[63] 0
15 *23:11 *419:la_oenb[2] 0
16 *23:11 *419:la_oenb[54] 0
17 *23:11 *419:wbs_cyc_i 0
18 *23:11 *99:16 0
19 *23:11 *142:16 0.0232097
20 *23:11 *187:8 0
21 *23:11 *197:20 0
22 *23:11 *231:8 0.196767
23 *23:11 *309:10 0
*RES
1 io_in[2] *23:10 33.975 
2 *23:10 *23:11 800.73 
3 *23:11 *23:13 4.5 
4 *23:13 *23:14 487.71 
5 *23:14 *419:io_in[2] 48.195 
*END

*D_NET *24 0.555816
*CONN
*P io_in[30] I
*I *419:io_in[30] I *D vb_wrapper
*CAP
1 io_in[30] 0.00179921
2 *419:io_in[30] 0.000621488
3 *24:11 0.0180606
4 *24:10 0.0174391
5 *24:8 0.0109237
6 *24:7 0.012723
7 *24:11 *25:19 0.016537
8 *24:11 *56:8 0
9 *24:11 *71:8 0.220267
10 *1:11 *24:11 0.257444
*RES
1 io_in[30] *24:7 21.465 
2 *24:7 *24:8 108.99 
3 *24:8 *24:10 4.5 
4 *24:10 *24:11 522.99 
5 *24:11 *419:io_in[30] 10.125 
*END

*D_NET *25 0.526636
*CONN
*P io_in[31] I
*I *419:io_in[31] I *D vb_wrapper
*CAP
1 io_in[31] 0.00010158
2 *419:io_in[31] 0.000663023
3 *25:19 0.0100418
4 *25:18 0.0093788
5 *25:16 0.0179101
6 *25:15 0.0179101
7 *25:13 0.013878
8 *25:11 0.0139796
9 *25:19 *37:19 0.197389
10 *25:19 *71:8 0.228847
11 *24:11 *25:19 0.016537
*RES
1 io_in[31] *25:11 1.215 
2 *25:11 *25:13 149.31 
3 *25:13 *25:15 4.5 
4 *25:15 *25:16 178.83 
5 *25:16 *25:18 4.5 
6 *25:18 *25:19 403.11 
7 *25:19 *419:io_in[31] 10.485 
*END

*D_NET *26 0.375164
*CONN
*P io_in[32] I
*I *419:io_in[32] I *D vb_wrapper
*CAP
1 io_in[32] 0.00220567
2 *419:io_in[32] 0.00357537
3 *26:19 0.036084
4 *26:18 0.0325087
5 *26:16 0.027337
6 *26:15 0.0295427
7 *26:19 *34:11 0.231334
8 *26:19 *79:12 0.00404104
9 *4:11 *26:19 0.0085359
*RES
1 io_in[32] *26:15 27.045 
2 *26:15 *26:16 272.97 
3 *26:16 *26:18 4.5 
4 *26:18 *26:19 544.23 
5 *26:19 *419:io_in[32] 35.415 
*END

*D_NET *27 0.636561
*CONN
*P io_in[33] I
*I *419:io_in[33] I *D vb_wrapper
*CAP
1 io_in[33] 0.000167681
2 *419:io_in[33] 0.00148034
3 *27:19 0.0103499
4 *27:18 0.00886956
5 *27:16 0.0324738
6 *27:15 0.0324738
7 *27:13 0.0135546
8 *27:11 0.0137223
9 *27:19 *35:19 0.231706
10 *27:19 *64:8 0.291762
*RES
1 io_in[33] *27:11 1.755 
2 *27:11 *27:13 146.61 
3 *27:13 *27:15 4.5 
4 *27:15 *27:16 324.27 
5 *27:16 *27:18 4.5 
6 *27:18 *27:19 430.65 
7 *27:19 *419:io_in[33] 18.225 
*END

*D_NET *28 0.685749
*CONN
*P io_in[34] I
*I *419:io_in[34] I *D vb_wrapper
*CAP
1 io_in[34] 0.01328
2 *419:io_in[34] 0.00120547
3 *28:11 0.0062189
4 *28:10 0.00501343
5 *28:8 0.0389493
6 *28:7 0.0389493
7 *28:5 0.01328
8 *28:11 *69:8 0.307926
9 *28:11 *73:8 0.237426
10 *28:11 *98:8 0.0235001
*RES
1 io_in[34] *28:5 143.865 
2 *28:5 *28:7 4.5 
3 *28:7 *28:8 389.25 
4 *28:8 *28:10 4.5 
5 *28:10 *28:11 445.77 
6 *28:11 *419:io_in[34] 15.705 
*END

*D_NET *29 0.509552
*CONN
*P io_in[35] I
*I *419:io_in[35] I *D vb_wrapper
*CAP
1 io_in[35] 0.0023488
2 *419:io_in[35] 0.00376252
3 *29:19 0.0374979
4 *29:18 0.0337353
5 *29:16 0.0484077
6 *29:15 0.0507565
7 *29:19 *85:10 0
8 *29:19 *104:14 0.333043
9 *5:11 *29:19 0
*RES
1 io_in[35] *29:15 29.205 
2 *29:15 *29:16 483.39 
3 *29:16 *29:18 4.5 
4 *29:18 *29:19 579.33 
5 *29:19 *419:io_in[35] 40.095 
*END

*D_NET *30 0.253189
*CONN
*P io_in[36] I
*I *419:io_in[36] I *D vb_wrapper
*CAP
1 io_in[36] 0.00010158
2 *419:io_in[36] 0.00140952
3 *30:16 0.0531867
4 *30:15 0.0517771
5 *30:13 0.0619775
6 *30:11 0.0620791
7 *419:io_in[36] *32:19 0.0173454
8 *30:13 *225:10 0
9 *30:13 *270:16 0.0053124
10 *30:13 *272:16 0
11 *30:13 *343:16 0
12 *30:13 *358:14 0
13 *30:16 *204:15 0
*RES
1 io_in[36] *30:11 1.215 
2 *30:11 *30:13 639.45 
3 *30:13 *30:15 4.5 
4 *30:15 *30:16 516.33 
5 *30:16 *419:io_in[36] 34.695 
*END

*D_NET *31 0.338767
*CONN
*P io_in[37] I
*I *419:io_in[37] I *D vb_wrapper
*CAP
1 io_in[37] 0.000641502
2 *419:io_in[37] 0.000904259
3 *31:14 0.0586725
4 *31:13 0.0577682
5 *31:11 0.0568267
6 *31:10 0.0568267
7 *31:8 0.00400222
8 *31:7 0.00464372
9 *419:io_in[37] *78:8 0.00140576
10 *419:io_in[37] *106:10 0.00190639
11 *419:io_in[37] *107:10 0.00677629
12 *31:8 *107:17 0.032345
13 *31:11 *151:16 0.0232928
14 *31:11 *174:16 0.0177183
15 *31:14 *268:5 0.0150371
*RES
1 io_in[37] *31:7 10.845 
2 *31:7 *31:8 60.93 
3 *31:8 *31:10 4.5 
4 *31:10 *31:11 638.55 
5 *31:11 *31:13 4.5 
6 *31:13 *31:14 525.69 
7 *31:14 *419:io_in[37] 30.195 
*END

*D_NET *32 0.701819
*CONN
*P io_in[3] I
*I *419:io_in[3] I *D vb_wrapper
*CAP
1 io_in[3] 0.000145659
2 *419:io_in[3] 4.74564e-05
3 *32:19 0.00785116
4 *32:18 0.00780371
5 *32:16 0.0440152
6 *32:15 0.0440152
7 *32:13 0.0287808
8 *32:11 0.0289265
9 *32:19 *63:8 0.243146
10 *32:19 *112:10 0.266148
11 *419:io_in[36] *32:19 0.0173454
12 *12:11 *32:19 0.0135944
*RES
1 io_in[3] *32:11 1.575 
2 *32:11 *32:13 314.37 
3 *32:13 *32:15 4.5 
4 *32:15 *32:16 440.55 
5 *32:16 *32:18 4.5 
6 *32:18 *32:19 444.33 
7 *32:19 *419:io_in[3] 4.905 
*END

*D_NET *33 0.45806
*CONN
*P io_in[4] I
*I *419:io_in[4] I *D vb_wrapper
*CAP
1 io_in[4] 0.00399985
2 *419:io_in[4] 0.00194742
3 *33:15 0.0264898
4 *33:14 0.0245424
5 *33:12 0.0392773
6 *33:11 0.0392773
7 *33:9 0.0243444
8 *33:7 0.0283443
9 *33:15 *67:8 0.268884
10 *33:15 *105:8 0.000953268
*RES
1 io_in[4] *33:7 43.425 
2 *33:7 *33:9 266.04 
3 *33:9 *33:11 4.5 
4 *33:11 *33:12 392.13 
5 *33:12 *33:14 4.5 
6 *33:14 *33:15 437.31 
7 *33:15 *419:io_in[4] 21.285 
*END

*D_NET *34 0.414112
*CONN
*P io_in[5] I
*I *419:io_in[5] I *D vb_wrapper
*CAP
1 io_in[5] 0.0280935
2 *419:io_in[5] 0.00319708
3 *34:11 0.0291527
4 *34:10 0.0259556
5 *34:8 0.0341431
6 *34:7 0.0341431
7 *34:5 0.0280935
8 *34:8 *107:11 0
9 *4:11 *34:11 0
10 *26:19 *34:11 0.231334
*RES
1 io_in[5] *34:5 306.225 
2 *34:5 *34:7 4.5 
3 *34:7 *34:8 340.29 
4 *34:8 *34:10 4.5 
5 *34:10 *34:11 427.95 
6 *34:11 *419:io_in[5] 34.695 
*END

*D_NET *35 0.642059
*CONN
*P io_in[6] I
*I *419:io_in[6] I *D vb_wrapper
*CAP
1 io_in[6] 0.000280649
2 *419:io_in[6] 0.00151569
3 *35:19 0.0100011
4 *35:18 0.00848544
5 *35:16 0.0262976
6 *35:15 0.0262976
7 *35:13 0.0276273
8 *35:11 0.0279079
9 *35:19 *36:19 0.28194
10 *27:19 *35:19 0.231706
*RES
1 io_in[6] *35:11 2.655 
2 *35:11 *35:13 300.87 
3 *35:13 *35:15 4.5 
4 *35:15 *35:16 262.35 
5 *35:16 *35:18 4.5 
6 *35:18 *35:19 420.57 
7 *35:19 *419:io_in[6] 18.405 
*END

*D_NET *36 0.422965
*CONN
*P io_in[7] I
*I *419:io_in[7] I *D vb_wrapper
*CAP
1 io_in[7] 0.000215438
2 *419:io_in[7] 0.00154521
3 *36:19 0.0230401
4 *36:18 0.0214949
5 *36:16 0.0198402
6 *36:15 0.0198402
7 *36:13 0.0274169
8 *36:11 0.0276323
9 *36:16 *106:11 0
10 *35:19 *36:19 0.28194
*RES
1 io_in[7] *36:11 2.115 
2 *36:11 *36:13 298.17 
3 *36:13 *36:15 4.5 
4 *36:15 *36:16 197.73 
5 *36:16 *36:18 4.5 
6 *36:18 *36:19 410.85 
7 *36:19 *419:io_in[7] 18.585 
*END

*D_NET *37 0.348544